data_Maghemite

_computing_structure_solution     'FOX http://objcryst.sourceforge.net'

_symmetry_space_group_name_H-M    'P 43 3 2'
_symmetry_space_group_name_Hall   ' P 4acd 2ab 3'

_cell_length_a    41.19661
_cell_length_b    41.19661
_cell_length_c    41.19661
_cell_angle_alpha  90.000
_cell_angle_beta   90.000
_cell_angle_gamma  90.000
_cell_volume      69917.25
loop_
    _atom_site_label
    _atom_site_type_symbol
    _atom_site_fract_x
    _atom_site_fract_y
    _atom_site_fract_z
    _atom_site_U_iso_or_equiv
    _atom_site_occupancy
    _atom_site_adp_type
    Fe1        Fe        0.992100  0.992100  0.992100 20309.933313 1.0000 Uiso
    Fe2        Fe       434700.334604 434699.084604  0.875000 17.438428 1.0000 Uiso
    Fe3        Fe        0.375000  0.125000  0.875000 5949.933185 0.3350 Uiso
    O1         O         0.861000  0.861000  0.861000 9887.624966 1.0000 Uiso
    O2         O        38809.061938 -211737.959863 62832.641561 763.036648 1.0000 Uiso

#  Dynamical occupancy corrections found by ObjCryst++:
#  values below 1. (100%) indicate a correction,
#  which means either that the atom is on a special position,
#  or that it is overlapping with another identical atom.
#   Fe1              : 0.3333
#   Fe2              : 0.5000
#   Fe3              : 0.1667
#   O1               : 0.3333
#   O2               : 1.0000
#
