
#======================================================================
# CRYSTAL DATA
#----------------------------------------------------------------------
data_VESTA_phase_1

_chemical_name_common                  'Al2.666 O3.999'
_cell_length_a                         5.652000
_cell_length_b                         5.652000
_cell_length_c                         7.871000
_cell_angle_alpha                      90.000000
_cell_angle_beta                       90.000000
_cell_angle_gamma                      90.000000
_cell_volume                           251.439903
_space_group_name_H-M_alt              'I 41/a m d'
_space_group_IT_number                 141

loop_
_space_group_symop_operation_xyz
   'x, y, z'
   '-x, -y, -z'
   '-x+1/2, -y, z+1/2'
   'x+1/2, y, -z+1/2'
   '-y+1/4, x+3/4, z+1/4'
   'y+3/4, -x+1/4, -z+3/4'
   'y+1/4, -x+1/4, z+3/4'
   '-y+3/4, x+3/4, -z+1/4'
   '-x+1/2, y, -z+1/2'
   'x+1/2, -y, z+1/2'
   'x, -y, -z'
   '-x, y, z'
   'y+1/4, x+3/4, -z+1/4'
   '-y+3/4, -x+1/4, z+3/4'
   '-y+1/4, -x+1/4, -z+3/4'
   'y+3/4, x+3/4, z+1/4'
   'x+1/2, y+1/2, z+1/2'
   '-x+1/2, -y+1/2, -z+1/2'
   '-x, -y+1/2, z'
   'x, y+1/2, -z'
   '-y+3/4, x+1/4, z+3/4'
   'y+1/4, -x+3/4, -z+1/4'
   'y+3/4, -x+3/4, z+1/4'
   '-y+1/4, x+1/4, -z+3/4'
   '-x, y+1/2, -z'
   'x, -y+1/2, z'
   'x+1/2, -y+1/2, -z+1/2'
   '-x+1/2, y+1/2, z+1/2'
   'y+3/4, x+1/4, -z+3/4'
   '-y+1/4, -x+3/4, z+1/4'
   '-y+3/4, -x+3/4, -z+1/4'
   'y+1/4, x+1/4, z+3/4'

loop_
   _atom_site_label
   _atom_site_occupancy
   _atom_site_fract_x
   _atom_site_fract_y
   _atom_site_fract_z
   _atom_site_adp_type
   _atom_site_U_iso_or_equiv
   _atom_site_type_symbol
   Al2        0.3600  0.000000     0.000000     0.000000    Uiso  ? Al
   Al3        0.5800  0.000000     0.000000     0.500000    Uiso  ? Al
   Al1        0.7800  0.000000     0.750000     0.125000    Uiso  ? Al
   O1         1.0     0.000000     0.007600     0.251600    Uiso  ? O
